src/data/3bus.txt
 08/19/93 UW ARCHIVE           100.0  1962 W IEEE 3 Bus Test Case
BUS DATA FOLLOWS                             4 ITEMS
   1 Bus 1     HV  1  1  3 0.000 0.0000    0.000     0.00    0.000   0.000     0.0  1.200    1.20    0.95   0.0    0.0        0
   2 Bus 2     HV  1  1  2 0.000 0.0000     0.00     0.00    170.0   0.000     0.0  1.200    1.20    0.95   0.0    0.0        0
   3 Bus 3     HV  1  1  0 1.000 0.0000    200.0    100.0    0.000   0.000     0.0  1.000    1.00    0.90   0.0    0.0        0
-999 
BRANCH DATA FOLLOWS                          4 ITEMS
   1    3  1  1 1 0  0.09756   0.12195     0.0000     0     0     0    0 0  0.0       0.0 0.0    0.0     0.0    0.0   0.0
   2    3  1  1 1 0  0.03448   0.08621     0.0000     0     0     0    0 0  0.0       0.0 0.0    0.0     0.0    0.0   0.0
-999
LOSS ZONES FOLLOWS                     1 ITEMS
  1 IEEE 4 BUS
-99
INTERCHANGE DATA FOLLOWS                 1 ITEMS
 1    2 Bus 2     HV    0.0  999.99  IEEE14  IEEE 14 Bus Test Case
-9
TIE LINES FOLLOWS                     0 ITEMS
-999
END OF DATA
